  140
 
 H     3.942221     0.000000     6.783761  0.144277
 H     3.189324     2.317179     6.783761  0.136321
 H     1.218213     3.749275     6.783761  0.122778
 H    -1.218213     3.749275     6.783761  0.122778
 H    -3.189324     2.317179     6.783761  0.136321
 H    -3.942221     0.000000     6.783761  0.144277
 H    -3.189324    -2.317179     6.783761  0.136321
 H    -1.218213    -3.749275     6.783761  0.122778
 H     1.218213    -3.749275     6.783761  0.122778
 H     3.189324    -2.317179     6.783761  0.136321
 C     3.967243     0.000000     5.698683 -0.172342
 C     3.209567     2.331887     5.698683 -0.183388
 C     1.225946     3.773073     5.698683 -0.199934
 C    -1.225946     3.773073     5.698683 -0.199934
 C    -3.209567     2.331887     5.698683 -0.183388
 C    -3.967243     0.000000     5.698683 -0.172342
 C    -3.209567    -2.331887     5.698683 -0.183388
 C    -1.225946    -3.773073     5.698683 -0.199934
 C     1.225946    -3.773073     5.698683 -0.199934
 C     3.209567    -2.331887     5.698683 -0.183388
 C     3.773073     1.225946     4.996638  0.058154
 C     2.331887     3.209567     4.996638  0.063892
 C     0.000000     3.967243     4.996638  0.067271
 C    -2.331887     3.209567     4.996638  0.063892
 C    -3.773073     1.225946     4.996638  0.058154
 C    -3.773073    -1.225946     4.996638  0.058154
 C    -2.331887    -3.209567     4.996638  0.063892
 C     0.000000    -3.967243     4.996638  0.067271
 C     2.331887    -3.209567     4.996638  0.063892
 C     3.773073    -1.225946     4.996638  0.058154
 C     3.773073     1.225946     3.559619  0.005041
 C     2.331887     3.209567     3.559619  0.008240
 C     0.000000     3.967243     3.559619  0.010416
 C    -2.331887     3.209567     3.559619  0.008240
 C    -3.773073     1.225946     3.559619  0.005041
 C    -3.773073    -1.225946     3.559619  0.005041
 C    -2.331887    -3.209567     3.559619  0.008240
 C     0.000000    -3.967243     3.559619  0.010416
 C     2.331887    -3.209567     3.559619  0.008240
 C     3.773073    -1.225946     3.559619  0.005041
 C     3.967243     0.000000     2.857574 -0.019156
 C     3.209567     2.331887     2.857574 -0.019107
 C     1.225946     3.773073     2.857574 -0.019591
 C    -1.225946     3.773073     2.857574 -0.019591
 C    -3.209567     2.331887     2.857574 -0.019107
 C    -3.967243     0.000000     2.857574 -0.019156
 C    -3.209567    -2.331887     2.857574 -0.019107
 C    -1.225946    -3.773073     2.857574 -0.019591
 C     1.225946    -3.773073     2.857574 -0.019591
 C     3.209567    -2.331887     2.857574 -0.019107
 C     3.967243     0.000000     1.420555  0.010902
 C     3.209567     2.331887     1.420555  0.011112
 C     1.225946     3.773073     1.420555  0.011705
 C    -1.225946     3.773073     1.420555  0.011705
 C    -3.209567     2.331887     1.420555  0.011112
 C    -3.967243     0.000000     1.420555  0.010902
 C    -3.209567    -2.331887     1.420555  0.011112
 C    -1.225946    -3.773073     1.420555  0.011705
 C     1.225946    -3.773073     1.420555  0.011705
 C     3.209567    -2.331887     1.420555  0.011112
 C     3.773073     1.225946     0.718509 -0.005664
 C     2.331887     3.209567     0.718509 -0.006579
 C     0.000000     3.967243     0.718509 -0.007314
 C    -2.331887     3.209567     0.718509 -0.006579
 C    -3.773073     1.225946     0.718509 -0.005664
 C    -3.773073    -1.225946     0.718509 -0.005664
 C    -2.331887    -3.209567     0.718509 -0.006579
 C     0.000000    -3.967243     0.718509 -0.007314
 C     2.331887    -3.209567     0.718509 -0.006579
 C     3.773073    -1.225946     0.718509 -0.005664
 C     3.773073     1.225946    -0.718509 -0.005664
 C     2.331887     3.209567    -0.718509 -0.006579
 C     0.000000     3.967243    -0.718509 -0.007314
 C    -2.331887     3.209567    -0.718509 -0.006579
 C    -3.773073     1.225946    -0.718509 -0.005664
 C    -3.773073    -1.225946    -0.718509 -0.005664
 C    -2.331887    -3.209567    -0.718509 -0.006579
 C     0.000000    -3.967243    -0.718509 -0.007314
 C     2.331887    -3.209567    -0.718509 -0.006579
 C     3.773073    -1.225946    -0.718509 -0.005664
 C     3.967243     0.000000    -1.420555  0.010902
 C     3.209567     2.331887    -1.420555  0.011112
 C     1.225946     3.773073    -1.420555  0.011705
 C    -1.225946     3.773073    -1.420555  0.011705
 C    -3.209567     2.331887    -1.420555  0.011112
 C    -3.967243     0.000000    -1.420555  0.010902
 C    -3.209567    -2.331887    -1.420555  0.011112
 C    -1.225946    -3.773073    -1.420555  0.011705
 C     1.225946    -3.773073    -1.420555  0.011705
 C     3.209567    -2.331887    -1.420555  0.011112
 C     3.967243     0.000000    -2.857574 -0.019156
 C     3.209567     2.331887    -2.857574 -0.019107
 C     1.225946     3.773073    -2.857574 -0.019591
 C    -1.225946     3.773073    -2.857574 -0.019591
 C    -3.209567     2.331887    -2.857574 -0.019107
 C    -3.967243     0.000000    -2.857574 -0.019156
 C    -3.209567    -2.331887    -2.857574 -0.019107
 C    -1.225946    -3.773073    -2.857574 -0.019591
 C     1.225946    -3.773073    -2.857574 -0.019591
 C     3.209567    -2.331887    -2.857574 -0.019107
 C     3.773073     1.225946    -3.559619  0.005041
 C     2.331887     3.209567    -3.559619  0.008240
 C     0.000000     3.967243    -3.559619  0.010416
 C    -2.331887     3.209567    -3.559619  0.008240
 C    -3.773073     1.225946    -3.559619  0.005041
 C    -3.773073    -1.225946    -3.559619  0.005041
 C    -2.331887    -3.209567    -3.559619  0.008240
 C     0.000000    -3.967243    -3.559619  0.010416
 C     2.331887    -3.209567    -3.559619  0.008240
 C     3.773073    -1.225946    -3.559619  0.005041
 C     3.773073     1.225946    -4.996638  0.058154
 C     2.331887     3.209567    -4.996638  0.063892
 C     0.000000     3.967243    -4.996638  0.067271
 C    -2.331887     3.209567    -4.996638  0.063892
 C    -3.773073     1.225946    -4.996638  0.058154
 C    -3.773073    -1.225946    -4.996638  0.058154
 C    -2.331887    -3.209567    -4.996638  0.063892
 C     0.000000    -3.967243    -4.996638  0.067271
 C     2.331887    -3.209567    -4.996638  0.063892
 C     3.773073    -1.225946    -4.996638  0.058154
 C     3.967243     0.000000    -5.698683 -0.172342
 C     3.209567     2.331887    -5.698683 -0.183388
 C     1.225946     3.773073    -5.698683 -0.199934
 C    -1.225946     3.773073    -5.698683 -0.199934
 C    -3.209567     2.331887    -5.698683 -0.183388
 C    -3.967243     0.000000    -5.698683 -0.172342
 C    -3.209567    -2.331887    -5.698683 -0.183388
 C    -1.225946    -3.773073    -5.698683 -0.199934
 C     1.225946    -3.773073    -5.698683 -0.199934
 C     3.209567    -2.331887    -5.698683 -0.183388
 H     3.942221     0.000000    -6.783761  0.144277
 H     3.189324     2.317179    -6.783761  0.136321
 H     1.218213     3.749275    -6.783761  0.122778
 H    -1.218213     3.749275    -6.783761  0.122778
 H    -3.189324     2.317179    -6.783761  0.136321
 H    -3.942221     0.000000    -6.783761  0.144277
 H    -3.189324    -2.317179    -6.783761  0.136321
 H    -1.218213    -3.749275    -6.783761  0.122778
 H     1.218213    -3.749275    -6.783761  0.122778
 H     3.189324    -2.317179    -6.783761  0.136321
